* NGSPICE file created from single_10b_cdac.ext - technology: sky130A

.subckt sky130_fd_pr__cap_mim_m3_1_8CZEMF c1_4396_n11600# c1_8632_n10480# c1_10044_11920#
+ c1_4396_14160# m3_17064_n6040# c1_12868_n6000# m3_n1292_n3800# m3_7180_9640# c1_19928_n4880#
+ m3_1532_n16120# m3_19888_n16120# c1_n1252_11920# c1_8632_1840# m3_n1292_n17240#
+ m3_n2704_n8280# m3_n1292_15240# m3_n11176_n9400# m3_10004_n4920# m3_n16824_n6040#
+ m3_n6940_n12760# c1_11456_5200# c1_4396_n400# m3_n12588_10760# m3_n5528_n3800# m3_n15412_2920#
+ c1_n6900_4080# c1_n15372_11920# m3_5768_n6040# m3_10004_16360# c1_19928_4080# m3_n21060_1800#
+ m3_21300_17480# m3_n5528_15240# m3_n12588_n7160# c1_1572_13040# c1_10044_9680# c1_21340_6320#
+ m3_11416_n2680# m3_n15412_n12760# m3_n2704_n15000# m3_19888_9640# m3_n19648_13000#
+ c1_n19608_11920# m3_2944_6280# c1_n12548_6320# m3_n1292_4040# c1_n2664_n13840# c1_17104_8560#
+ c1_5808_13040# c1_160_5200# c1_12868_n4880# c1_15692_n7120# c1_1572_5200# m3_7180_n9400#
+ c1_n5488_13040# c1_n11136_n6000# c1_15692_8560# c1_n22432_n7120# m3_8592_10760#
+ c1_18516_n14960# m3_14240_6280# c1_n22432_7440# m3_n2704_14120# c1_n19608_5200#
+ m3_n14000_n10520# c1_10044_n10480# c1_2984_n8240# m3_n8352_n4920# c1_19928_n7120#
+ m3_n16824_n17240# c1_12868_n400# m3_n6940_680# m3_8592_n7160# c1_n1252_n11600# m3_n16824_5160#
+ m3_n8352_16360# c1_7220_16400# c1_2984_720# m3_18476_n12760# m3_n6940_n15000# c1_18516_2960#
+ m3_n12588_13000# m3_n2704_n13880# m3_n19648_11880# c1_n16784_9680# c1_7220_8560#
+ m3_n9764_n2680# m3_n22472_4040# c1_n12548_11920# c1_n18196_n16080# c1_17104_n12720#
+ c1_n5488_n10480# m3_n19648_n8280# c1_8632_14160# m3_1532_17480# c1_5808_n16080#
+ m3_n15412_n15000# m3_n14000_9640# m3_17064_10760# c1_21340_n16080# m3_n18236_6280#
+ c1_n11136_n4880# c1_n8312_n400# c1_2984_n400# c1_12868_n11600# m3_4356_1800# m3_n11176_680#
+ m3_n15412_n9400# c1_4396_n12720# c1_14280_n10480# m3_17064_n10520# c1_160_720# c1_4396_15280#
+ m3_17064_n7160# c1_12868_n7120# m3_n1292_n4920# m3_n16824_10760# m3_1532_n17240#
+ m3_19888_n17240# m3_n6940_n1560# c1_8632_2960# m3_4356_n9400# m3_5768_10760# c1_18516_n17200#
+ m3_n11176_1800# m3_8592_13000# m3_n1292_16360# m3_n16824_n7160# m3_n6940_n13880#
+ m3_19888_n9400# c1_11456_6320# m3_n12588_11880# c1_14280_13040# m3_n5528_n4920#
+ m3_10004_4040# c1_n16784_720# m3_5768_n7160# c1_n21020_13040# m3_120_7400# m3_10004_17480#
+ m3_n21060_2920# m3_n5528_16360# m3_n12588_n8280# c1_1572_14160# c1_21340_7440# m3_14240_n6040#
+ m3_18476_n15000# c1_18516_5200# m3_n15412_n13880# m3_n2704_n16120# c1_18516_13040#
+ m3_n19648_14120# c1_n4076_4080# c1_n4076_16400# c1_n4076_720# c1_n9724_13040# c1_7220_n1520#
+ c1_10044_720# c1_n12548_7440# m3_n1292_5160# c1_n2664_n14960# c1_17104_9680# c1_5808_14160#
+ c1_160_6320# m3_n2704_n3800# c1_15692_n8240# m3_1532_7400# m3_17064_13000# m3_5768_4040#
+ c1_1572_6320# c1_n22432_720# c1_n18196_16400# c1_n5488_14160# c1_n11136_n7120# m3_2944_n6040#
+ c1_15692_9680# m3_n21060_n1560# c1_n22432_n8240# m3_8592_11880# m3_5768_n10520#
+ c1_n22432_8560# m3_n2704_15240# c1_n19608_6320# m3_n8352_4040# m3_n14000_n11640#
+ c1_2984_n9360# c1_21340_16400# m3_n16824_13000# c1_n1252_1840# c1_19928_n8240# m3_17064_4040#
+ c1_8632_5200# m3_n12588_4040# m3_8592_n8280# m3_5768_13000# c1_n1252_n12720# m3_n16824_6280#
+ m3_n15412_680# m3_n8352_17480# c1_7220_17520# m3_21300_n9400# c1_n6900_n400# m3_18476_n13880#
+ m3_n6940_n16120# m3_n12588_14120# c1_11456_13040# m3_2944_1800# c1_7220_9680# m3_n22472_5160#
+ c1_19928_n400# c1_n2664_13040# c1_n13960_n16080# c1_17104_n13840# m3_11416_n6040#
+ c1_8632_15280# c1_11456_n16080# m3_14240_1800# m3_n15412_n16120# m3_8592_7400# m3_17064_11880#
+ c1_n16784_13040# c1_12868_n12720# m3_4356_2920# c1_4396_1840# c1_4396_n13840# m3_17064_n11640#
+ c1_n6900_n16080# c1_n2664_n17200# c1_n4076_n1520# m3_17064_n8280# c1_12868_n8240#
+ m3_n16824_11880# m3_n6940_n2680# c1_n8312_720# m3_5768_11880# m3_n11176_2920# m3_8592_14120#
+ c1_n18196_n11600# m3_n1292_17480# c1_n2664_4080# m3_n16824_n8280# c1_17104_16400#
+ c1_11456_7440# c1_7220_720# c1_n18196_n1520# c1_14280_14160# m3_120_n440# m3_14240_10760#
+ m3_10004_5160# c1_n8312_16400# m3_n19648_n3800# m3_5768_n8280# c1_n21020_14160#
+ c1_5808_n11600# m3_120_8520# c1_21340_n11600# c1_21340_n1520# c1_7220_n10480# m3_n18236_1800#
+ m3_n5528_17480# c1_1572_15280# c1_21340_8560# c1_160_n16080# m3_14240_n7160# m3_18476_n16120#
+ c1_18516_6320# c1_15692_n16080# m3_n2704_n17240# c1_18516_14160# m3_n19648_15240#
+ m3_n9764_n6040# m3_n6940_4040# m3_1532_n9400# c1_n4076_17520# c1_4396_10800# c1_n9724_14160#
+ c1_7220_n2640# m3_4356_680# m3_2944_10760# c1_n12548_8560# m3_1532_n440# m3_15652_4040#
+ m3_n1292_6280# c1_5808_15280# c1_160_7440# c1_12868_1840# m3_n2704_n4920# m3_120_n10520#
+ c1_15692_n9360# m3_1532_8520# m3_17064_14120# m3_5768_5160# c1_1572_7440# c1_n18196_17520#
+ c1_n5488_15280# c1_n11136_n8240# m3_2944_n7160# m3_n21060_n2680# c1_n22432_n9360#
+ m3_11416_680# m3_5768_n11640# c1_n22432_9680# m3_n2704_16360# c1_n19608_7440# m3_n8352_5160#
+ m3_n14000_n12760# c1_10044_16400# c1_21340_17520# m3_n16824_14120# c1_n1252_2960#
+ c1_19928_n9360# m3_18476_680# m3_17064_5160# c1_n1252_16400# c1_8632_6320# m3_n12588_5160#
+ m3_n12588_n3800# c1_n6900_13040# m3_5768_14120# c1_n1252_n13840# m3_10004_n9400#
+ m3_n6940_n17240# m3_n12588_15240# c1_11456_14160# m3_11416_10760# m3_2944_2920#
+ m3_14240_13000# c1_n8312_1840# m3_n15412_7400# m3_n22472_6280# c1_2984_1840# m3_n19648_4040#
+ c1_n15372_16400# c1_n2664_14160# c1_17104_n14960# c1_17104_n1520# m3_8592_n440#
+ c1_n4076_n400# c1_n8312_n1520# m3_11416_n7160# m3_14240_2920# m3_n15412_n17240#
+ m3_8592_8520# c1_n19608_16400# m3_120_n1560# c1_n16784_14160# c1_12868_n13840# m3_2944_13000#
+ c1_4396_2960# c1_4396_n14960# m3_17064_n12760# c1_n4076_n2640# c1_n19608_n16080#
+ m3_8592_n3800# c1_12868_n9360# m3_n16824_1800# c1_n4076_n10480# m3_8592_15240# c1_n18196_n12720#
+ c1_n13960_n11600# m3_n14000_n15000# c1_17104_17520# c1_11456_8560# c1_n18196_n2640#
+ c1_14280_15280# m3_n8352_n9400# m3_14240_11880# c1_n1252_5200# m3_10004_6280# c1_n8312_17520#
+ m3_n19648_n4920# m3_n9764_10760# c1_8632_10800# c1_5808_4080# c1_n21020_15280# c1_n13960_13040#
+ c1_10044_n1520# c1_5808_n12720# c1_11456_n11600# m3_120_9640# c1_21340_n12720# c1_21340_n2640#
+ m3_n18236_2920# c1_160_13040# c1_n9724_4080# c1_n1252_n1520# c1_21340_9680# m3_14240_n8280#
+ c1_18516_7440# m3_18476_n17240# c1_18516_15280# m3_11416_13000# m3_n19648_16360#
+ m3_n9764_n7160# m3_n6940_5160# c1_n6900_n11600# c1_n12548_16400# c1_4396_11920#
+ m3_n14000_n1560# c1_n9724_15280# c1_7220_n3760# m3_17064_n3800# c1_17104_n17200#
+ m3_2944_11880# m3_n19648_n10520# c1_n12548_9680# m3_15652_5160# c1_2984_n10480#
+ c1_160_8560# c1_n15372_n1520# c1_12868_2960# m3_120_n11640# m3_1532_9640# m3_17064_15240#
+ m3_5768_6280# c1_1572_8560# m3_n16824_n3800# c1_n11136_n9360# m3_2944_n8280# m3_18476_n1560#
+ m3_5768_n12760# c1_n6900_1840# m3_n2704_17480# c1_n19608_8560# m3_n8352_6280# c1_4396_5200#
+ c1_8632_n16080# c1_4396_n17200# m3_n14000_n13880# m3_17064_n15000# c1_10044_17520#
+ m3_5768_n3800# c1_n19608_n1520# m3_n1292_n9400# c1_19928_1840# m3_n16824_15240#
+ m3_n6940_n6040# m3_17064_6280# c1_n1252_17520# c1_8632_7440# m3_n12588_6280# c1_1572_10800#
+ m3_n12588_n4920# c1_15692_n11600# c1_160_n11600# c1_n6900_14160# c1_n2664_n400#
+ m3_5768_15240# c1_n1252_n14960# m3_n15412_n440# c1_11456_15280# m3_11416_11880#
+ m3_n12588_16360# m3_n5528_n9400# m3_n1292_1800# m3_14240_14120# c1_n8312_2960# m3_n15412_8520#
+ c1_2984_2960# m3_n19648_5160# c1_n15372_17520# c1_n2664_15280# c1_5808_10800# m3_n9764_13000#
+ m3_4356_n10520# c1_17104_n2640# m3_n21060_7400# c1_n5488_10800# c1_n8312_n2640#
+ m3_11416_n8280# m3_8592_9640# c1_n19608_17520# m3_120_n2680# c1_n16784_15280# c1_7220_n6000#
+ c1_12868_n14960# m3_2944_14120# m3_17064_n13880# c1_n4076_n3760# c1_n12548_n1520#
+ m3_8592_n4920# c1_12868_5200# m3_n16824_2920# m3_n21060_n6040# m3_8592_16360# m3_5768_n15000#
+ c1_n18196_n13840# m3_n22472_1800# c1_n13960_n12720# c1_n22432_n10480# m3_n14000_n16120#
+ c1_10044_n16080# c1_11456_9680# c1_n18196_n3760# c1_n1252_6320# m3_21300_4040# m3_n4116_4040#
+ m3_n9764_11880# m3_8592_n10520# c1_8632_11920# c1_n13960_14160# c1_10044_n2640#
+ c1_5808_n13840# c1_11456_n12720# c1_21340_n13840# c1_21340_n3760# c1_160_14160#
+ c1_n1252_n17200# c1_n1252_n2640# c1_18516_8560# m3_11416_14120# m3_n19648_17480#
+ c1_n8312_5200# m3_n9764_n8280# c1_n6900_n12720# m3_n6940_6280# c1_n12548_17520#
+ c1_2984_5200# c1_n19608_n11600# m3_n14000_n2680# m3_17064_n4920# c1_7220_n4880#
+ m3_n19648_n11640# m3_15652_6280# c1_n5488_n16080# c1_160_9680# c1_n15372_n2640#
+ m3_120_n12760# m3_17064_16360# c1_1572_9680# m3_n12588_680# m3_n16824_n4920# m3_n6940_10760#
+ c1_14280_10800# m3_18476_n2680# m3_10004_1800# m3_5768_n13880# c1_12868_n17200#
+ m3_4356_7400# c1_n6900_2960# c1_n19608_9680# c1_4396_6320# c1_14280_n16080# m3_17064_n16120#
+ m3_5768_n4920# c1_n21020_10800# c1_n4076_n6000# c1_n19608_n2640# c1_19928_2960#
+ m3_n16824_16360# m3_n6940_n7160# c1_8632_8560# c1_1572_11920# c1_15692_n12720# c1_160_n12720#
+ c1_n6900_15280# m3_14240_n3800# c1_18516_10800# m3_5768_16360# c1_n4076_1840# m3_n11176_7400#
+ c1_n9724_10800# c1_n18196_n6000# m3_n12588_17480# c1_5808_n400# m3_n1292_2920# m3_14240_15240#
+ m3_n15412_9640# m3_n21060_n440# m3_n19648_6280# c1_5808_11920# m3_n9764_14120# m3_4356_n11640#
+ c1_n9724_n400# m3_15652_n1560# c1_17104_n3760# c1_21340_n6000# m3_5768_1800# m3_n21060_8520#
+ m3_n8352_680# c1_n5488_11920# m3_2944_n3800# c1_n5488_720# c1_n8312_n3760# c1_11456_720#
+ m3_n8352_1800# c1_8632_n11600# c1_4396_720# c1_7220_n7120# m3_17064_1800# m3_n21060_10760#
+ m3_2944_15240# m3_n12588_1800# m3_n2704_4040# c1_n4076_n4880# c1_n12548_n2640# m3_n2704_n9400#
+ c1_12868_6320# m3_120_n15000# m3_11416_4040# m3_n5528_n10520# m3_n6940_13000# c1_11456_10800#
+ m3_n21060_n7160# m3_8592_17480# m3_5768_n16120# c1_n6900_5200# m3_n22472_2920# c1_n18196_n14960#
+ c1_n2664_10800# c1_n13960_n13840# c1_n12548_n10480# m3_n14000_n17240# c1_19928_5200#
+ c1_n18196_n4880# c1_n1252_7440# m3_21300_5160# c1_n5488_4080# m3_n16824_680# m3_n4116_5160#
+ m3_11416_n3800# m3_8592_n11640# c1_n13960_15280# c1_10044_n3760# c1_5808_n14960#
+ c1_11456_n13840# c1_21340_n4880# c1_21340_n14960# c1_160_15280# c1_n1252_n3760#
+ c1_n16784_10800# c1_18516_9680# m3_11416_15240# m3_2944_7400# c1_n8312_6320# c1_n11136_720#
+ c1_n6900_n13840# c1_2984_6320# c1_n19608_n12720# m3_12828_n1560# m3_n19648_n12760#
+ c1_17104_n6000# c1_n18196_720# m3_n9764_4040# c1_n8312_n6000# c1_n15372_n3760# m3_120_n13880#
+ m3_14240_7400# m3_17064_17480# c1_n2664_1840# m3_4356_n440# m3_18476_4040# m3_n9764_n10520#
+ c1_10044_n11600# m3_n6940_11880# m3_120_n6040# c1_14280_11920# m3_10004_2920# m3_4356_8520#
+ m3_n21060_13000# c1_n16784_n10480# c1_4396_7440# m3_17064_n17240# c1_n21020_11920#
+ c1_n4076_n7120# c1_n9724_720# c1_n19608_n3760# m3_n16824_17480# m3_n6940_n8280#
+ c1_8632_9680# m3_n11176_n440# c1_15692_n13840# c1_160_n13840# m3_n18236_n10520#
+ m3_14240_n4920# c1_8632_720# c1_18516_11920# c1_1572_n10480# m3_5768_17480# c1_n4076_2960#
+ m3_n9764_n3800# m3_n6940_1800# m3_n11176_8520# c1_n18196_n17200# c1_n9724_11920#
+ c1_n18196_n7120# m3_15652_1800# c1_n5488_n11600# c1_n9724_n10480# m3_14240_16360#
+ m3_n19648_n9400# m3_n9764_15240# m3_4356_n12760# c1_5808_n17200# c1_10044_n6000#
+ m3_15652_n2680# c1_17104_n4880# c1_21340_n17200# c1_7220_n16080# c1_21340_n7120#
+ m3_5768_2920# m3_n21060_9640# m3_n18236_7400# m3_2944_n4920# c1_n8312_n4880# c1_n1252_n6000#
+ m3_5768_680# m3_n8352_2920# c1_8632_n12720# c1_14280_n11600# c1_4396_16400# c1_n15372_4080#
+ m3_n14000_n6040# c1_7220_n8240# m3_n19648_n15000# m3_17064_2920# m3_n21060_11880#
+ m3_2944_16360# m3_n12588_2920# m3_n2704_5160# c1_n6900_10800# c1_n12548_n3760# c1_n15372_n6000#
+ c1_12868_7440# m3_12828_680# m3_120_n16120# m3_11416_5160# m3_n5528_n11640# m3_n6940_14120#
+ c1_11456_11920# m3_n21060_n8280# m3_18476_n6040# m3_5768_n17240# c1_n6900_6320#
+ m3_n4116_n1560# m3_19888_680# m3_n19648_1800# c1_n2664_11920# c1_n13960_n14960#
+ c1_n19608_n6000# c1_19928_6320# c1_n1252_8560# m3_21300_6280# m3_n4116_6280# m3_n12588_n9400#
+ m3_11416_n4920# m3_8592_n12760# c1_10044_n4880# c1_11456_n14960# c1_n4076_5200#
+ m3_2944_n440# c1_n1252_n4880# c1_n16784_11920# m3_11416_16360# m3_2944_8520# c1_n8312_7440#
+ c1_n6900_n14960# c1_2984_7440# c1_n19608_n13840# m3_4356_n15000# c1_2984_13040#
+ m3_12828_n2680# m3_n19648_n13880# m3_120_10760# c1_17104_n7120# m3_14240_n440# c1_n21020_n10480#
+ m3_n9764_5160# c1_n8312_n7120# c1_n15372_n4880# m3_14240_8520# c1_n2664_2960# m3_7180_n10520#
+ m3_18476_5160# m3_n9764_n11640# c1_10044_n12720# m3_120_n7160# m3_4356_9640# m3_n21060_14120#
+ c1_4396_8560# c1_5808_1840# c1_n13960_10800# c1_n4076_n8240# m3_8592_n9400# c1_4396_n1520#
+ c1_n12548_n6000# c1_n19608_n4880# c1_160_10800# c1_n9724_1840# m3_n16824_7400# c1_15692_n14960#
+ c1_160_n14960# m3_n18236_n11640# m3_12828_n10520# c1_14280_4080# c1_n4076_n16080#
+ m3_n9764_n4920# m3_n6940_2920# m3_n11176_9640# c1_n13960_4080# c1_n13960_n17200#
+ c1_n5488_n400# c1_n18196_n8240# m3_15652_2920# c1_n5488_n12720# m3_14240_17480#
+ m3_n18236_n440# m3_n9764_16360# m3_4356_n13880# m3_8592_n15000# c1_8632_16400# c1_11456_n17200#
+ c1_10044_n7120# m3_n14000_10760# c1_21340_n8240# m3_n18236_8520# c1_n1252_n7120#
+ c1_8632_n13840# c1_14280_n12720# c1_n6900_n17200# c1_4396_17520# m3_n14000_n7160#
+ m3_17064_n9400# c1_7220_n9360# m3_120_13000# m3_2944_17480# m3_n19648_n16120# m3_n6940_n3800#
+ m3_18476_10760# c1_n6900_11920# c1_2984_n16080# m3_n2704_6280# c1_n12548_n4880#
+ c1_n15372_n7120# c1_12868_8560# m3_120_n17240# c1_n2664_5200# m3_11416_6280# m3_n16824_n9400#
+ m3_n6940_15240# m3_n5528_n12760# m3_18476_n7160# c1_n6900_7440# m3_n4116_n2680#
+ m3_n19648_2920# m3_5768_n9400# c1_n19608_n7120# c1_19928_7440# c1_7220_n11600# c1_n1252_9680#
+ c1_1572_16400# m3_8592_n13880# c1_160_n17200# c1_15692_n17200# c1_15692_13040# c1_n4076_6320#
+ c1_n22432_13040# m3_11416_17480# m3_n1292_7400# m3_2944_9640# c1_n8312_8560# m3_n4116_n10520#
+ c1_2984_8560# c1_5808_16400# c1_n19608_n14960# m3_4356_n16120# c1_2984_14160# m3_15652_n6040#
+ m3_120_11880# m3_n14000_13000# c1_n11136_n10480# c1_17104_n8240# c1_19928_13040#
+ m3_n9764_6280# c1_n5488_16400# m3_n21060_n3800# c1_n8312_n8240# c1_n15372_n400#
+ c1_8632_n1520# m3_14240_9640# m3_7180_n11640# m3_18476_6280# m3_n9764_n12760# c1_10044_n13840#
+ m3_120_n8280# m3_21300_1800# m3_n21060_15240# m3_n4116_1800# m3_18476_13000# c1_4396_9680#
+ c1_5808_2960# m3_n16824_n440# c1_n13960_11920# c1_n4076_n9360# c1_4396_n2640# c1_n12548_n7120#
+ m3_n22472_n1560# c1_160_11920# c1_n9724_2960# m3_n16824_8520# m3_n18236_n12760#
+ m3_n5528_n15000# m3_12828_n11640# m3_n22472_7400# c1_n21020_4080# c1_n22432_n16080#
+ c1_n18196_n9360# m3_n8352_n10520# c1_n5488_n13840# m3_n9764_17480# m3_8592_n16120#
+ c1_8632_17520# c1_10044_n8240# m3_n14000_11880# c1_n15372_n10480# c1_12868_13040#
+ c1_21340_n9360# m3_n18236_9640# c1_n1252_n8240# c1_1572_n1520# c1_8632_n14960# c1_14280_n13840#
+ m3_n14000_n8280# c1_n19608_n17200# m3_21300_n10520# m3_12828_n6040# m3_120_14120#
+ m3_n19648_n17240# m3_n6940_n4920# m3_18476_11880# c1_5808_n1520# c1_n15372_n8240#
+ c1_12868_9680# c1_n4076_n11600# c1_n8312_n10480# c1_n2664_6320# m3_n9764_n15000#
+ m3_n5528_4040# m3_n6940_16360# m3_n5528_n13880# c1_n5488_n1520# m3_n22472_n10520#
+ c1_14280_16400# m3_18476_n8280# m3_10004_7400# c1_n6900_8560# c1_5808_5200# c1_n21020_16400#
+ c1_n19608_n8240# m3_n18236_n1560# c1_19928_8560# c1_7220_n12720# c1_n9724_5200#
+ c1_14280_n400# c1_1572_17520# m3_14240_n9400# m3_n18236_n15000# c1_n13960_n400#
+ c1_18516_16400# c1_15692_14160# m3_15652_10760# c1_n4076_7440# m3_n2704_680# m3_n1292_n440#
+ c1_n9724_16400# c1_n11136_13040# c1_19928_n10480# c1_n22432_14160# m3_n1292_8520#
+ c1_n8312_9680# m3_n2704_1800# m3_n4116_n11640# c1_2984_n11600# m3_n9764_680# c1_2984_9680#
+ c1_5808_17520# m3_4356_n17240# c1_2984_15280# m3_15652_n7160# m3_n14000_14120# c1_12868_720#
+ c1_17104_n9360# m3_11416_1800# c1_19928_14160# m3_5768_7400# m3_2944_n9400# c1_n5488_17520#
+ c1_n8312_n9360# m3_n21060_n4920# c1_8632_n2640# m3_n8352_7400# m3_7180_n12760# m3_n9764_n13880#
+ c1_8632_n17200# c1_10044_n14960# m3_21300_2920# m3_17064_7400# m3_n21060_16360#
+ m3_n4116_2920# c1_n5488_1840# m3_n12588_7400# m3_18476_14120# c1_n11136_4080# m3_n11176_n1560#
+ c1_4396_n3760# c1_n12548_n8240# m3_n22472_n2680# m3_n16824_9640# m3_n22472_n440#
+ m3_n18236_n13880# m3_n5528_n16120# c1_11456_16400# m3_12828_n12760# m3_n4116_n6040#
+ m3_n22472_8520# c1_n2664_16400# c1_n12548_n16080# c1_14280_n1520# c1_n5488_n14960#
+ m3_n8352_n11640# m3_n9764_1800# m3_11416_n9400# m3_8592_n17240# c1_10044_n9360#
+ c1_n21020_n1520# c1_12868_14160# m3_18476_1800# m3_12828_10760# m3_15652_13000#
+ c1_n12548_720# c1_n1252_n9360# m3_120_n3800# c1_n16784_16400# c1_1572_n2640# c1_18516_n1520#
+ c1_14280_n14960# m3_12828_4040# m3_11416_n10520# m3_21300_n11640# c1_n9724_n1520#
+ m3_12828_n7160# m3_7180_n1560# m3_120_15240# c1_n18196_4080# c1_5808_n2640# c1_n4076_n12720#
+ c1_n15372_n9360# c1_n2664_7440# m3_10004_n440# m3_7180_4040# m3_7180_n15000# m3_n9764_n16120#
+ c1_10044_n17200# c1_n22432_n11600# m3_n5528_5160# m3_n6940_17480# m3_n12588_n10520#
+ c1_n5488_n2640# m3_n22472_n11640# c1_14280_17520# m3_10004_8520# c1_n6900_9680#
+ c1_n16784_n16080# c1_5808_6320# c1_n21020_17520# c1_4396_n6000# c1_n19608_n9360#
+ m3_n18236_n2680# c1_19928_9680# c1_7220_n13840# c1_n9724_6320# m3_7180_680# m3_n18236_n16120#
+ m3_12828_n15000# c1_n21020_n400# c1_18516_17520# c1_15692_15280# c1_1572_n16080#
+ m3_n9764_n9400# c1_n4076_8560# m3_n6940_7400# m3_15652_11880# c1_n15372_1840# m3_n14000_n3800#
+ c1_n9724_17520# c1_n11136_14160# c1_n22432_15280# c1_11456_n1520# c1_10044_4080#
+ m3_15652_7400# m3_n1292_9640# c1_n9724_n16080# c1_n5488_n17200# m3_n2704_2920# m3_n4116_n12760#
+ c1_2984_n12720# m3_15652_n10520# m3_5768_n440# m3_14240_680# m3_19888_4040# c1_n2664_n1520#
+ m3_15652_n8280# m3_n14000_15240# m3_11416_2920# c1_19928_15280# m3_5768_8520# m3_12828_13000#
+ m3_n18236_680# m3_n8352_n440# m3_n15412_n1560# c1_8632_n3760# m3_18476_n3800# m3_n8352_8520#
+ m3_7180_n13880# c1_14280_n17200# m3_17064_n440# m3_n12588_n440# c1_n16784_n1520#
+ m3_4356_n1560# m3_17064_8520# m3_n21060_17480# c1_n5488_2960# m3_n12588_8520# m3_18476_15240#
+ m3_n4116_10760# c1_n6900_16400# m3_n11176_n2680# c1_4396_n4880# c1_n12548_n9360#
+ m3_19888_n1560# m3_n5528_n17240# c1_11456_17520# m3_12828_n13880# m3_n4116_n7160#
+ m3_n22472_9640# m3_n19648_7400# c1_n2664_17520# c1_2984_10800# c1_14280_n2640# m3_n8352_n12760#
+ m3_n9764_2920# c1_n16784_4080# c1_n21020_n2640# m3_120_680# c1_12868_15280# m3_18476_2920#
+ m3_12828_11880# c1_17104_720# m3_15652_14120# m3_120_n4920# c1_n16784_17520# c1_1572_n3760#
+ c1_18516_n2640# m3_n4116_n15000# m3_n14000_4040# m3_12828_5160# m3_11416_n11640#
+ m3_21300_n12760# c1_n9724_n2640# m3_12828_n8280# m3_7180_n2680# m3_120_16360# c1_n21020_n16080#
+ c1_5808_n3760# c1_14280_1840# c1_n4076_n13840# c1_8632_n6000# c1_n2664_8560# c1_n12548_n11600#
+ m3_7180_5160# m3_7180_n16120# c1_n13960_1840# m3_n9764_n17240# c1_n22432_n12720#
+ m3_n5528_6280# m3_n12588_n11640# c1_n5488_n3760# m3_n22472_n12760# c1_n11136_n400#
+ m3_10004_9640# c1_n5488_5200# c1_5808_7440# m3_n4116_13000# c1_n13960_16400# c1_4396_n7120#
+ m3_n22472_n6040# c1_7220_n14960# m3_21300_n1560# c1_160_16400# c1_n9724_7440# m3_n6940_n440#
+ m3_n18236_n17240# c1_n6900_n1520# m3_12828_n16120# c1_n4076_9680# m3_n6940_8520#
+ c1_n15372_2960# m3_n14000_n4920# m3_15652_n440# c1_n11136_15280# c1_11456_n2640#
+ m3_15652_8520# m3_n8352_n15000# m3_n4116_n13880# c1_2984_n13840# m3_15652_n11640#
+ m3_19888_5160# m3_n21060_n10520# c1_n2664_n2640# m3_n14000_16360# m3_5768_9640#
+ m3_12828_14120# c1_1572_n6000# m3_n15412_n2680# m3_18476_n4920# c1_8632_n4880# c1_17104_4080#
+ c1_n16784_n11600# m3_n8352_9640# m3_21300_n15000# c1_n16784_n2640# m3_4356_n2680#
+ c1_n18196_n400# m3_17064_9640# m3_n6940_n9400# c1_15692_4080# m3_n12588_9640# m3_18476_16360#
+ m3_n4116_11880# c1_n6900_17520# c1_18516_n10480# c1_5808_n6000# c1_15692_10800#
+ c1_1572_n11600# m3_19888_n2680# m3_n19648_n440# c1_n22432_10800# c1_n5488_n6000#
+ m3_n22472_n15000# c1_n9724_n11600# m3_n4116_n8280# m3_n19648_8520# c1_2984_11920#
+ m3_15652_n3800# m3_n18236_n6040# c1_19928_10800# c1_14280_n3760# c1_7220_n17200#
+ m3_n8352_n13880# c1_7220_4080# c1_n13960_n1520# m3_1532_n1560# c1_n21020_n3760#
+ m3_15652_15240# c1_160_n1520# c1_n15372_5200# c1_10044_n400# c1_1572_n4880# c1_18516_n3760#
+ m3_n4116_n16120# m3_n14000_5160# m3_12828_6280# m3_11416_n12760# m3_21300_n13880#
+ c1_n9724_n3760# m3_120_17480# c1_n11136_n16080# m3_n21060_n9400# c1_5808_n4880#
+ c1_14280_2960# c1_n4076_n14960# c1_8632_n7120# m3_n22472_10760# c1_n2664_9680# c1_n12548_n12720#
+ m3_7180_6280# m3_7180_n17240# c1_n13960_2960# c1_n21020_1840# c1_n22432_n13840#
+ m3_n12588_n12760# c1_n5488_n4880# m3_n22472_n13880# m3_21300_7400# m3_n4116_7400#
+ c1_n5488_6320# c1_5808_8560# m3_n4116_14120# m3_n11176_n6040# c1_n13960_17520# c1_12868_10800#
+ c1_4396_n8240# m3_10004_n1560# m3_n22472_n7160# m3_21300_n2680# c1_160_17520# m3_10004_n10520#
+ c1_n9724_8560# c1_n6900_n2640# m3_12828_n17240# m3_n6940_9640# m3_12828_n3800# c1_11456_n3760#
+ c1_n16784_n400# m3_15652_9640# m3_n8352_n16120# c1_n21020_n11600# c1_14280_n6000#
+ m3_n11176_n10520# c1_2984_n14960# m3_15652_n12760# m3_19888_6280# m3_n21060_n11640#
+ c1_n2664_n3760# m3_n14000_17480# c1_n21020_n6000# c1_n15372_n16080# m3_12828_15240#
+ m3_n5528_1800# c1_n13960_720# c1_1572_n7120# c1_n2664_n10480# c1_n16784_n12720#
+ c1_18516_n6000# m3_11416_n15000# m3_21300_n16120# c1_n9724_n6000# m3_7180_n6040#
+ c1_n16784_n3760# m3_18476_17480# c1_n22432_4080# m3_n21060_680# c1_5808_n7120# c1_15692_11920#
+ c1_14280_5200# c1_n1252_720# c1_n8312_n16080# c1_n4076_n17200# c1_1572_n12720# m3_14240_n10520#
+ m3_n18236_10760# m3_n22472_13000# m3_n8352_n1560# c1_n13960_5200# c1_n11136_10800#
+ m3_n12588_n15000# c1_n22432_11920# c1_n5488_n7120# m3_n22472_n16120# c1_n9724_n12720#
+ m3_n19648_9640# c1_14280_720# m3_15652_n4920# m3_n18236_n7160# c1_7220_13040# c1_19928_11920#
+ c1_14280_n4880# m3_1532_n2680# c1_n13960_n2640# c1_n21020_n4880# m3_15652_16360#
+ c1_160_n2640# c1_n15372_6320# c1_19928_n16080# c1_11456_n6000# c1_18516_n4880# m3_n2704_7400#
+ m3_15652_n15000# m3_n4116_n17240# c1_n11136_1840# c1_2984_n17200# m3_n14000_6280#
+ m3_11416_n13880# c1_n9724_n4880# c1_n2664_n6000# m3_11416_7400# c1_17104_n400# m3_n15412_n6040#
+ c1_8632_n8240# m3_n11176_10760# m3_n4116_n3800# m3_n22472_11880# c1_n12548_n13840#
+ m3_n1292_n1560# c1_n21020_2960# m3_21300_n440# c1_15692_n400# c1_n22432_n14960#
+ m3_n12588_n13880# m3_n4116_n440# m3_4356_n6040# c1_n16784_n6000# m3_21300_8520#
+ m3_n4116_8520# c1_n5488_7440# m3_n4116_15240# c1_5808_9680# m3_n11176_n7160# m3_2944_n10520#
+ c1_12868_11920# c1_4396_n9360# m3_10004_n2680# m3_n22472_n8280# m3_19888_n6040#
+ m3_10004_n11640# m3_n18236_13000# c1_n9724_9680# m3_n5528_n1560# c1_n6900_n3760#
+ m3_12828_1800# m3_120_4040# m3_12828_n4920# c1_11456_n4880# c1_7220_n400# c1_n11136_n11600#
+ m3_n8352_n17240# c1_21340_4080# c1_n21020_n12720# c1_14280_n7120# m3_n11176_n11640#
+ m3_n9764_7400# m3_15652_n13880# c1_n18196_1840# m3_n21060_n12760# c1_n2664_n4880#
+ c1_n4076_13040# c1_n21020_n7120# m3_7180_1800# m3_18476_7400# m3_7180_10760# m3_12828_16360#
+ m3_n5528_2920# m3_120_n9400# c1_n12548_4080# c1_1572_n8240# c1_n16784_n13840# c1_18516_n7120#
+ m3_n4116_680# m3_1532_4040# m3_11416_n16120# m3_21300_n17240# c1_n9724_n7120# m3_7180_n7160#
+ c1_n16784_n4880# c1_n18196_13040# c1_5808_n8240# c1_14280_6320# c1_1572_n13840#
+ m3_n11176_13000# m3_14240_n11640# m3_n18236_11880# c1_21340_13040# m3_1532_680#
+ m3_n22472_14120# m3_n8352_n2680# c1_n13960_6320# c1_n21020_5200# c1_n11136_11920#
+ c1_n22432_n17200# m3_n12588_n16120# c1_n5488_n8240# m3_n22472_n17240# c1_10044_1840#
+ c1_n9724_n13840# m3_19888_1800# m3_8592_680# c1_n15372_n11600# m3_n18236_n8280#
+ c1_7220_14160# m3_21300_n6040# c1_n6900_n6000# c1_n13960_n3760# c1_17104_n10480#
+ c1_160_n3760# m3_15652_17480# c1_n15372_7440# m3_15652_680# m3_n14000_n9400# m3_n2704_n440#
+ c1_11456_n7120# m3_n15412_10760# m3_n2704_8520# m3_15652_n16120# c1_n11136_2960#
+ m3_8592_4040# m3_11416_n440# m3_n19648_680# m3_n21060_n15000# c1_n8312_n11600# c1_n2664_n7120#
+ m3_11416_8520# m3_4356_10760# m3_7180_13000# c1_4396_n10480# m3_n15412_n7160# m3_18476_n9400#
+ c1_8632_n9360# m3_n11176_11880# m3_n4116_n4920# m3_n1292_n2680# c1_n12548_n14960#
+ m3_19888_10760# m3_4356_n7160# c1_n22432_n400# c1_n16784_n7120# m3_21300_9640# m3_n4116_9640#
+ c1_n5488_8560# c1_n16784_1840# m3_21300_680# m3_n4116_16360# m3_n11176_n8280# m3_2944_n11640#
+ m3_19888_n7160# m3_10004_n12760# c1_17104_13040# c1_11456_4080# m3_n18236_14120#
+ m3_n5528_n2680# c1_n6900_n4880# c1_19928_n11600# c1_n8312_13040# m3_n14000_1800#
+ m3_12828_2920# m3_120_5160# c1_2984_16400# m3_n9764_n440# c1_n11136_n12720# c1_18516_720#
+ c1_14280_n8240# m3_n11176_n12760# c1_n21020_n13840# m3_n9764_8520# c1_n18196_2960#
+ m3_n21060_n13880# m3_18476_n440# c1_n4076_14160# m3_1532_n6040# c1_n13960_n6000#
+ c1_n21020_n8240# m3_7180_2920# m3_18476_8520# m3_12828_17480# m3_7180_11880# c1_160_n6000#
+ c1_1572_n9360# m3_n1292_n10520# c1_160_4080# c1_n16784_n14960# m3_n15412_13000#
+ c1_18516_n8240# m3_n2704_n1560# m3_1532_5160# c1_n11136_5200# m3_11416_n17240# c1_1572_4080#
+ m3_n22472_n3800# c1_n9724_n8240# m3_7180_n8280# c1_n18196_14160# m3_4356_13000#
+ c1_n19608_4080# c1_5808_n9360# c1_14280_7440# c1_1572_n14960# m3_n11176_14120# m3_14240_n12760#
+ c1_10044_13040# c1_21340_14160# m3_n22472_15240# c1_n12548_n17200# m3_21300_10760#
+ c1_n13960_7440# c1_n21020_6320# m3_19888_13000# m3_n12588_n17240# c1_n1252_13040#
+ c1_n5488_n9360# c1_10044_2960# c1_n9724_n14960# m3_19888_2920# c1_n1252_n10480#
+ c1_n15372_n12720# m3_10004_n6040# c1_7220_15280# m3_21300_n7160# m3_10004_n15000#
+ m3_n15412_4040# c1_n6900_n7120# c1_17104_1840# c1_n13960_n4880# c1_n15372_13040#
+ c1_160_n4880# c1_n15372_8560# c1_21340_n400# c1_15692_1840# c1_11456_n8240# m3_n15412_11880#
+ m3_n2704_9640# m3_n11176_n15000# m3_8592_5160# m3_15652_n17240# c1_n18196_5200#
+ m3_n21060_n16120# c1_n8312_n12720# c1_n2664_n8240# c1_2984_n1520# c1_n19608_13040#
+ c1_n12548_n400# m3_11416_9640# m3_4356_11880# m3_7180_14120# c1_12868_n10480# m3_n16824_n10520#
+ m3_n15412_n8280# c1_n16784_n17200# m3_19888_11880# m3_n18236_n3800# m3_4356_n8280#
+ c1_n16784_n8240# c1_n5488_9680# c1_n16784_2960# c1_7220_1840# m3_n4116_17480# c1_18516_n16080#
+ m3_2944_n12760# c1_15692_16400# c1_1572_n17200# m3_19888_n8280# m3_10004_n13880#
+ m3_14240_n15000# c1_17104_14160# m3_n18236_15240# m3_n8352_n6040# m3_21300_13000#
+ c1_19928_n12720# c1_n22432_16400# c1_n8312_14160# c1_10044_5200# m3_n19648_n1560#
+ m3_1532_10760# c1_n9724_n17200# m3_n14000_2920# m3_120_6280# c1_2984_17520# m3_15652_n9400#
+ c1_n11136_n13840# c1_19928_16400# c1_14280_n9360# m3_n11176_n13880# c1_18516_4080#
+ c1_n21020_n14960# m3_n9764_9640# m3_n1292_680# c1_n4076_15280# m3_1532_n7160# c1_n12548_13040#
+ c1_n13960_n7120# c1_n21020_n9360# m3_18476_9640# m3_1532_n10520# m3_19888_n10520#
+ c1_160_n7120# m3_n1292_n11640# m3_n15412_14120# c1_18516_n9360# m3_n2704_n2680#
+ m3_1532_6280# c1_n11136_6320# m3_n11176_n3800# m3_n22472_n4920# c1_n9724_n9360#
+ c1_n18196_15280# m3_4356_14120# c1_14280_8560# m3_14240_n13880# c1_10044_14160#
+ m3_10004_10760# m3_n11176_15240# c1_21340_15280# m3_n22472_16360# m3_n1292_n6040#
+ m3_21300_11880# c1_n13960_8560# c1_n21020_7440# m3_19888_14120# c1_n1252_14160#
+ c1_8632_4080# m3_n12588_n1560# c1_n16784_5200# c1_11456_n400# m3_2944_n15000# c1_n15372_n13840#
+ m3_10004_n7160# c1_12868_16400# m3_21300_n8280# m3_10004_n16120# m3_n5528_n6040#
+ m3_n15412_5160# c1_n6900_n8240# c1_17104_2960# c1_n15372_14160# m3_1532_13000# c1_15692_n1520#
+ c1_n15372_9680# m3_n21060_4040# m3_12828_n9400# m3_7180_n3800# c1_15692_2960# c1_11456_n9360#
+ c1_n22432_n1520# c1_n21020_n17200# m3_n11176_n16120# m3_8592_6280# c1_n18196_6320#
+ c1_n22432_1840# m3_n21060_n17240# c1_n8312_n13840# c1_n2664_n9360# c1_2984_n2640#
+ c1_n19608_14160# m3_7180_15240# c1_19928_n1520# m3_n5528_7400# c1_160_n400# m3_n16824_n11640#
+ c1_n2664_n16080# c1_1572_n400# m3_8592_n1560# m3_n18236_n4920# m3_n22472_680# m3_n8352_10760#
+ c1_7220_10800# c1_n2664_720# c1_n16784_n9360# c1_n19608_n400# c1_7220_2960# m3_2944_n13880#
+ c1_n18196_n10480# c1_1572_720# c1_15692_17520# m3_14240_n16120# c1_17104_15280#
+ m3_10004_13000# m3_n18236_16360# m3_n8352_n7160# m3_21300_14120# c1_15692_720# c1_n11136_16400#
+ c1_19928_n13840# c1_n22432_17520# c1_n8312_15280# c1_10044_6320# m3_n19648_n2680#
+ m3_1532_11880# c1_5808_n10480# c1_21340_n10480# c1_n11136_n14960# c1_19928_17520#
+ m3_n15412_n3800# m3_1532_n8280# c1_n12548_14160# c1_17104_5200# c1_n13960_n8240#
+ c1_12868_n1520# m3_17064_n1560# m3_1532_n11640# m3_19888_n11640# c1_160_n8240# m3_4356_n3800#
+ m3_n1292_n12760# c1_15692_5200# m3_n15412_15240# c1_18516_n11600# c1_n11136_7440#
+ c1_21340_720# m3_n1292_10760# m3_n11176_n4920# m3_n16824_n1560# m3_19888_n3800#
+ m3_4356_15240# m3_4356_4040# c1_14280_9680# c1_10044_15280# m3_5768_n1560# m3_120_1800#
+ m3_10004_11880# m3_n11176_16360# m3_n4116_n9400# m3_n22472_17480# m3_n1292_n7160#
+ c1_n13960_9680# c1_n21020_8560# m3_19888_15240# m3_n5528_10760# c1_n1252_15280#
+ c1_n15372_720# m3_n12588_n2680# m3_n8352_13000# c1_21340_1840# m3_n2704_n10520#
+ c1_n16784_6320# c1_7220_5200# m3_n11176_4040# c1_n4076_10800# m3_2944_n16120# m3_10004_n8280#
+ c1_12868_17520# c1_n15372_n14960# m3_10004_n17240# m3_n5528_n7160# c1_n12548_1840#
+ m3_n15412_6280# c1_n6900_n9360# c1_n15372_15280# c1_n6900_720# m3_1532_14120# c1_15692_n2640#
+ m3_1532_1800# m3_12828_7400# m3_n21060_5160# c1_18516_n400# c1_n18196_10800# c1_n11136_n1520#
+ m3_7180_n4920# c1_n22432_n2640# c1_n11136_n17200# m3_n11176_n17240# c1_n18196_7440#
+ c1_n22432_2960# c1_n8312_n14960# m3_n5528_n440# c1_n21020_720# c1_2984_n3760# c1_n19608_15280#