* PEX produced on Thu Jun 12 04:56:30 PM WIB 2025 using ./iic-pex.sh with m=2 and s=1
* NGSPICE file created from x10b_adc_pex.ext - technology: sky130A

.subckt x10b_adc_pex VCM EN VDDA VDDR CLK CKO DATA[8] DATA[7] DATA[6] DATA[5] DATA[4]
+ DATA[3] DATA[2] DATA[1] DATA[0] VINP VINN VSSR VSSA VSSD VDDD DATA[9]
X0 th_dif_sw_0.VCN cdac_0.single_10b_cdac_0.x10b_cap_array_0.SW[1] sky130_fd_pr__cap_mim_m3_1 l=4 w=4
X1 th_dif_sw_0.VCN cdac_0.single_10b_cdac_0.x10b_cap_array_0.SW[1] sky130_fd_pr__cap_mim_m3_1 l=4 w=4
X2 th_dif_sw_0.VCP cdac_0.single_10b_cdac_1.x10b_cap_array_0.SW[1] sky130_fd_pr__cap_mim_m3_1 l=4 w=4
X3 VDDR cdac_0.single_10b_cdac_1.cdac_sw_10b_0.cdac_sw_4_0.nooverlap_clk_0.CLKB0 cdac_0.single_10b_cdac_1.cdac_sw_10b_0.cdac_sw_4_0.nooverlap_clk_0.CLK0 VDDR sky130_fd_pr__pfet_01v8 ad=0.168 pd=1.42 as=0.168 ps=1.42 w=1.12 l=0.15
X4 VCM cdac_0.single_10b_cdac_1.cdac_sw_10b_0.cdac_sw_1_0.tg_sw_1_2.SWN VCM VSSR sky130_fd_pr__nfet_01v8 ad=0.145 pd=1.58 as=95.7 ps=1.0428k w=0.5 l=0.5
X5 a_68178_51635# sar10b_0.clk_div_0.COUNT\[0\] VDDD VDDD sky130_fd_pr__pfet_01v8 ad=0.126 pd=1.14 as=0.168 ps=1.24 w=0.84 l=0.15
X6 th_dif_sw_0.VCP cdac_0.single_10b_cdac_1.x10b_cap_array_0.SW[2] sky130_fd_pr__cap_mim_m3_1 l=4 w=4
X7 c1_25688_97972# m3_25356_97932# sky130_fd_pr__cap_mim_m3_1 l=4 w=4
X8 VSSA a_55121_59650# tdc_0.RDY VSSA sky130_fd_pr__nfet_01v8_lvt ad=0.2997 pd=2.29 as=0.1554 ps=1.16 w=0.74 l=0.15
X9 a_12472_111642# sar10b_0.CF[7] cdac_0.single_10b_cdac_1.cdac_sw_10b_0.cdac_sw_8_0.nooverlap_clk_0.sky130_fd_sc_hs__nand2_1_0.Y VSSR sky130_fd_pr__nfet_01v8_lvt ad=0.0888 pd=0.98 as=0.2109 ps=2.05 w=0.74 l=0.15
X10 th_dif_sw_0.VCN cdac_0.single_10b_cdac_0.x10b_cap_array_0.SW[0] sky130_fd_pr__cap_mim_m3_1 l=4 w=4
X11 cdac_0.single_10b_cdac_0.cdac_sw_10b_0.cdac_sw_6_0.nooverlap_clk_0.CLK0 cdac_0.single_10b_cdac_0.cdac_sw_10b_0.cdac_sw_6_0.nooverlap_clk_0.CLKB0 VDDR VDDR sky130_fd_pr__pfet_01v8 ad=0.168 pd=1.42 as=0.3864 ps=2.93 w=1.12 l=0.15
X12 th_dif_sw_0.VCN cdac_0.single_10b_cdac_0.x10b_cap_array_0.SW[0] sky130_fd_pr__cap_mim_m3_1 l=4 w=4
X13 cdac_0.single_10b_cdac_0.cdac_sw_10b_0.cdac_sw_9_0.tg_sw_9_9.SWP cdac_0.single_10b_cdac_0.cdac_sw_10b_0.cdac_sw_9_0.tg_sw_9_9.SWN VDDR VDDR sky130_fd_pr__pfet_01v8 ad=0.168 pd=1.42 as=0.196 ps=1.47 w=1.12 l=0.15
X14 th_dif_sw_0.VCN cdac_0.single_10b_cdac_0.x10b_cap_array_0.SW[0] sky130_fd_pr__cap_mim_m3_1 l=4 w=4
X15 th_dif_sw_0.VCN cdac_0.single_10b_cdac_0.x10b_cap_array_0.SW[2] sky130_fd_pr__cap_mim_m3_1 l=4 w=4
X16 th_dif_sw_0.VCP cdac_0.single_10b_cdac_1.x10b_cap_array_0.SW[0] sky130_fd_pr__cap_mim_m3_1 l=4 w=4
X17 cdac_0.single_10b_cdac_1.cdac_sw_10b_0.cdac_sw_4_0.nooverlap_clk_0.CLK0 cdac_0.single_10b_cdac_1.cdac_sw_10b_0.cdac_sw_4_0.nooverlap_clk_0.CLKB0 VDDR VDDR sky130_fd_pr__pfet_01v8 ad=0.168 pd=1.42 as=0.196 ps=1.47 w=1.12 l=0.15
X18 th_dif_sw_0.VCN cdac_0.single_10b_cdac_0.x10b_cap_array_0.SW[3] sky130_fd_pr__cap_mim_m3_1 l=4 w=4
X19 VSSD sar10b_0.cyclic_flag_0.FINAL a_67209_55011# VSSD sky130_fd_pr__nfet_01v8_lvt ad=0.1295 pd=1.09 as=0.2109 ps=2.05 w=0.74 l=0.15
X20 cdac_0.single_10b_cdac_1.x10b_cap_array_0.SW[2] cdac_0.single_10b_cdac_1.cdac_sw_10b_0.cdac_sw_3_0.tg_sw_3_3.SWN cdac_0.single_10b_cdac_1.x10b_cap_array_0.SW[2] VSSR sky130_fd_pr__nfet_01v8 ad=0.145 pd=1.58 as=9.28 ps=101.12 w=0.5 l=0.5
X21 VCM cdac_0.single_10b_cdac_1.cdac_sw_10b_0.cdac_sw_4_0.tg_sw_4_4.SWP VCM VDDR sky130_fd_pr__pfet_01v8 ad=0.435 pd=3.58 as=287.10001 ps=2.3628k w=1.5 l=0.5
X22 cdac_0.single_10b_cdac_1.cdac_sw_10b_0.cdac_sw_9_0.tg_sw_9_9.SWN cdac_0.single_10b_cdac_1.cdac_sw_10b_0.cdac_sw_9_0.nooverlap_clk_0.x10.A VSSR VSSR sky130_fd_pr__nfet_01v8_lvt ad=0.1036 pd=1.02 as=0.1554 ps=1.16 w=0.74 l=0.15
X23 VSSD VDDD VSSD VSSD sky130_fd_pr__nfet_01v8_lvt ad=0.1113 pd=1.37 as=121.95275 ps=1.15351k w=0.42 l=1
X24 th_dif_sw_0.VCN cdac_0.single_10b_cdac_0.x10b_cap_array_0.SW[1] sky130_fd_pr__cap_mim_m3_1 l=4 w=4
X25 th_dif_sw_0.VCN cdac_0.single_10b_cdac_0.x10b_cap_array_0.SW[1] sky130_fd_pr__cap_mim_m3_1 l=4 w=4
X26 th_dif_sw_0.VCP cdac_0.single_10b_cdac_1.x10b_cap_array_0.SW[0] sky130_fd_pr__cap_mim_m3_1 l=4 w=4
X27 cdac_0.single_10b_cdac_1.cdac_sw_10b_0.cdac_sw_10_0.nooverlap_clk_0.sky130_fd_sc_hs__nand2_1_0.Y sar10b_0.CF[9] VDDR VDDR sky130_fd_pr__pfet_01v8 ad=0.168 pd=1.42 as=0.3192 ps=2.81 w=1.12 l=0.15
X28 a_65643_71265# sar10b_0.net43 VSSD VSSD sky130_fd_pr__nfet_01v8_lvt ad=0.1197 pd=1.41 as=0.1638 ps=1.2 w=0.42 l=0.15
X29 th_dif_sw_0.VCN cdac_0.single_10b_cdac_0.x10b_cap_array_0.SW[0] sky130_fd_pr__cap_mim_m3_1 l=4 w=4
X30 th_dif_sw_0.VCN cdac_0.single_10b_cdac_0.x10b_cap_array_0.SW[0] sky130_fd_pr__cap_mim_m3_1 l=4 w=4
X31 th_dif_sw_0.VCN cdac_0.single_10b_cdac_0.x10b_cap_array_0.SW[1] sky130_fd_pr__cap_mim_m3_1 l=4 w=4
X32 th_dif_sw_0.VCN cdac_0.single_10b_cdac_0.x10b_cap_array_0.SW[0] sky130_fd_pr__cap_mim_m3_1 l=4 w=4
X33 VDDR cdac_0.single_10b_cdac_1.cdac_sw_10b_0.cdac_sw_5_0.nooverlap_clk_0.x10.A cdac_0.single_10b_cdac_1.cdac_sw_10b_0.cdac_sw_5_0.tg_sw_5_5.SWN VDDR sky130_fd_pr__pfet_01v8 ad=0.196 pd=1.47 as=0.168 ps=1.42 w=1.12 l=0.15
X34 a_39543_110941# cdac_0.single_10b_cdac_1.cdac_sw_10b_0.cdac_sw_2_0.nooverlap_clk_0.CLK0 cdac_0.single_10b_cdac_1.x10b_cap_array_0.SW[1] VSSR sky130_fd_pr__nfet_01v8 ad=0.145 pd=1.58 as=0.145 ps=1.58 w=0.5 l=0.5
X35 VDDR cdac_0.single_10b_cdac_1.cdac_sw_10b_0.cdac_sw_9_0.tg_sw_9_9.SWN cdac_0.single_10b_cdac_1.cdac_sw_10b_0.cdac_sw_9_0.tg_sw_9_9.SWP VDDR sky130_fd_pr__pfet_01v8 ad=0.196 pd=1.47 as=0.168 ps=1.42 w=1.12 l=0.15
X36 VSSR cdac_0.single_10b_cdac_1.cdac_sw_10b_0.cdac_sw_3_0.nooverlap_clk_0.x10.A cdac_0.single_10b_cdac_1.cdac_sw_10b_0.cdac_sw_3_0.tg_sw_3_3.SWN VSSR sky130_fd_pr__nfet_01v8_lvt ad=0.2146 pd=2.06 as=0.1036 ps=1.02 w=0.74 l=0.15
X37 cdac_0.single_10b_cdac_1.x10b_cap_array_0.SW[0] cdac_0.single_10b_cdac_1.cdac_sw_10b_0.cdac_sw_1_0.tg_sw_1_2.SWP cdac_0.single_10b_cdac_1.x10b_cap_array_0.SW[0] VDDR sky130_fd_pr__pfet_01v8 ad=0.435 pd=3.58 as=34.8 ps=286.39999 w=1.5 l=0.5
X38 th_dif_sw_0.VCP cdac_0.single_10b_cdac_1.x10b_cap_array_0.SW[0] sky130_fd_pr__cap_mim_m3_1 l=4 w=4
X39 th_dif_sw_0.VCN cdac_0.single_10b_cdac_0.x10b_cap_array_0.SW[0] sky130_fd_pr__cap_mim_m3_1 l=4 w=4
X40 VSSR sar10b_0.SWN[3] a_29939_5779# VSSR sky130_fd_pr__nfet_01v8 ad=0.145 pd=1.58 as=0.145 ps=1.58 w=0.5 l=0.5
X41 VDDR cdac_0.single_10b_cdac_1.cdac_sw_10b_0.cdac_sw_3_0.nooverlap_clk_0.x1.A cdac_0.single_10b_cdac_1.cdac_sw_10b_0.cdac_sw_3_0.nooverlap_clk_0.sky130_fd_sc_hs__inv_8_0.A VDDR sky130_fd_pr__pfet_01v8 ad=0.3304 pd=2.83 as=0.168 ps=1.42 w=1.12 l=0.15
X42 cdac_0.single_10b_cdac_0.x10b_cap_array_0.SW[7] cdac_0.single_10b_cdac_0.cdac_sw_10b_0.cdac_sw_8_0.tg_sw_8_8.SWP VCM VSSR sky130_fd_pr__nfet_01v8 ad=0.145 pd=1.58 as=0.145 ps=1.58 w=0.5 l=0.5
X43 cdac_0.single_10b_cdac_1.cdac_sw_10b_0.cdac_sw_5_0.tg_sw_5_5.SWN cdac_0.single_10b_cdac_1.cdac_sw_10b_0.cdac_sw_5_0.nooverlap_clk_0.x10.A VDDR VDDR sky130_fd_pr__pfet_01v8 ad=0.168 pd=1.42 as=0.3304 ps=2.83 w=1.12 l=0.15
X44 a_38665_5788# sar10b_0.SWN[1] VDDR VDDR sky130_fd_pr__pfet_01v8 ad=0.435 pd=3.58 as=0.435 ps=3.58 w=1.5 l=0.5
X45 cdac_0.single_10b_cdac_0.x10b_cap_array_0.SW[5] cdac_0.single_10b_cdac_0.cdac_sw_10b_0.cdac_sw_6_0.tg_sw_6_6.SWP VCM VSSR sky130_fd_pr__nfet_01v8 ad=0.145 pd=1.58 as=0.145 ps=1.58 w=0.5 l=0.5
X46 VSSR cdac_0.single_10b_cdac_1.cdac_sw_10b_0.cdac_sw_1_0.nooverlap_clk_0.CLKB0 cdac_0.single_10b_cdac_1.cdac_sw_10b_0.cdac_sw_1_0.nooverlap_clk_0.CLK0 VSSR sky130_fd_pr__nfet_01v8_lvt ad=0.1295 pd=1.09 as=0.1036 ps=1.02 w=0.74 l=0.15
X47 VCM cdac_0.single_10b_cdac_0.cdac_sw_10b_0.cdac_sw_1_0.tg_sw_1_2.SWP VCM VDDR sky130_fd_pr__pfet_01v8 ad=0.435 pd=3.58 as=0 ps=0 w=1.5 l=0.5
X48 cdac_0.single_10b_cdac_0.cdac_sw_10b_0.cdac_sw_6_0.nooverlap_clk_0.CLK0 cdac_0.single_10b_cdac_0.cdac_sw_10b_0.cdac_sw_6_0.nooverlap_clk_0.CLKB0 VSSR VSSR sky130_fd_pr__nfet_01v8_lvt ad=0.1036 pd=1.02 as=0.1554 ps=1.16 w=0.74 l=0.15
X49 sar10b_0.net16 a_66785_50875# VDDD VDDD sky130_fd_pr__pfet_01v8 ad=0.168 pd=1.42 as=0.203 ps=1.505 w=1.12 l=0.15
X50 cdac_0.single_10b_cdac_1.x10b_cap_array_0.SW[0] cdac_0.single_10b_cdac_1.cdac_sw_10b_0.cdac_sw_1_0.nooverlap_clk_0.CLKB0 a_43467_106170# VDDR sky130_fd_pr__pfet_01v8 ad=0.435 pd=3.58 as=0.435 ps=3.58 w=1.5 l=0.5
X51 cdac_0.single_10b_cdac_1.cdac_sw_10b_0.cdac_sw_4_0.tg_sw_4_4.SWP cdac_0.single_10b_cdac_1.cdac_sw_10b_0.cdac_sw_4_0.tg_sw_4_4.SWN VSSR VSSR sky130_fd_pr__nfet_01v8_lvt ad=0.1036 pd=1.02 as=0.2109 ps=2.05 w=0.74 l=0.15
X52 cdac_0.single_10b_cdac_1.cdac_sw_10b_0.cdac_sw_3_0.nooverlap_clk_0.sky130_fd_sc_hs__inv_8_0.A cdac_0.single_10b_cdac_1.cdac_sw_10b_0.cdac_sw_3_0.nooverlap_clk_0.x1.A VDDR VDDR sky130_fd_pr__pfet_01v8 ad=0.168 pd=1.42 as=0.168 ps=1.42 w=1.12 l=0.15
X53 VDDR cdac_0.single_10b_cdac_1.cdac_sw_10b_0.cdac_sw_2_0.nooverlap_clk_0.CLKB0 cdac_0.single_10b_cdac_1.cdac_sw_10b_0.cdac_sw_2_0.nooverlap_clk_0.CLK0 VDDR sky130_fd_pr__pfet_01v8 ad=0.3864 pd=2.93 as=0.168 ps=1.42 w=1.12 l=0.15
X54 th_dif_sw_0.VCP cdac_0.single_10b_cdac_1.x10b_cap_array_0.SW[1] sky130_fd_pr__cap_mim_m3_1 l=4 w=4
X55 cdac_0.single_10b_cdac_1.x10b_cap_array_0.SW[7] cdac_0.single_10b_cdac_1.cdac_sw_10b_0.cdac_sw_8_0.tg_sw_8_8.SWP VCM VSSR sky130_fd_pr__nfet_01v8 ad=0.145 pd=1.58 as=0.145 ps=1.58 w=0.5 l=0.5
X56 VSSR cdac_0.single_10b_cdac_0.cdac_sw_10b_0.cdac_sw_2_0.tg_sw_2_2.SWN cdac_0.single_10b_cdac_0.cdac_sw_10b_0.cdac_sw_2_0.tg_sw_2_2.SWP VSSR sky130_fd_pr__nfet_01v8_lvt ad=0.1036 pd=1.02 as=0.1036 ps=1.02 w=0.74 l=0.15
X57 VSSD a_65407_63634# sar10b_0.net43 VSSD sky130_fd_pr__nfet_01v8_lvt ad=0.2109 pd=2.05 as=0.2109 ps=2.05 w=0.74 l=0.15
X58 VDDR cdac_0.single_10b_cdac_0.cdac_sw_10b_0.cdac_sw_4_0.nooverlap_clk_0.x10.A cdac_0.single_10b_cdac_0.cdac_sw_10b_0.cdac_sw_4_0.tg_sw_4_4.SWN VDDR sky130_fd_pr__pfet_01v8 ad=0.196 pd=1.47 as=0.168 ps=1.42 w=1.12 l=0.15
X59 a_62281_52347# sar10b_0.net16 VDDD VDDD sky130_fd_pr__pfet_01v8 ad=0.063 pd=0.72 as=0.1176 ps=1.4 w=0.42 l=0.15
X60 a_64949_64916# a_64814_65014# VDDD VDDD sky130_fd_pr__pfet_01v8 ad=0.19062 pd=1.505 as=0.305 ps=2.61 w=1 l=0.15
X61 VDDD a_61929_51311# a_62181_51440# VDDD sky130_fd_pr__pfet_01v8 ad=0.1428 pd=1.225 as=0.063 ps=0.72 w=0.42 l=0.15
X62 th_dif_sw_0.VCP cdac_0.single_10b_cdac_1.x10b_cap_array_0.SW[0] sky130_fd_pr__cap_mim_m3_1 l=4 w=4
X63 VDDR cdac_0.single_10b_cdac_1.cdac_sw_10b_0.cdac_sw_3_0.nooverlap_clk_0.x1.A cdac_0.single_10b_cdac_1.cdac_sw_10b_0.cdac_sw_3_0.nooverlap_clk_0.sky130_fd_sc_hs__inv_8_0.A VDDR sky130_fd_pr__pfet_01v8 ad=0.168 pd=1.42 as=0.168 ps=1.42 w=1.12 l=0.15
X64 cdac_0.single_10b_cdac_1.cdac_sw_10b_0.cdac_sw_2_0.nooverlap_clk_0.CLK0 cdac_0.single_10b_cdac_1.cdac_sw_10b_0.cdac_sw_2_0.nooverlap_clk_0.CLKB0 VDDR VDDR sky130_fd_pr__pfet_01v8 ad=0.168 pd=1.42 as=0.196 ps=1.47 w=1.12 l=0.15
X65 th_dif_sw_0.VCP cdac_0.single_10b_cdac_1.x10b_cap_array_0.SW[0] sky130_fd_pr__cap_mim_m3_1 l=4 w=4
X66 VSSR cdac_0.single_10b_cdac_1.cdac_sw_10b_0.cdac_sw_10_0.nooverlap_clk_0.x10.A cdac_0.single_10b_cdac_1.cdac_sw_10b_0.cdac_sw_10_0.tg_sw_10_10.SWN VSSR sky130_fd_pr__nfet_01v8_lvt ad=0.2146 pd=2.06 as=0.1036 ps=1.02 w=0.74 l=0.15
X67 VDDD sar10b_0.cyclic_flag_0.FINAL a_67055_68689# VDDD sky130_fd_pr__pfet_01v8 ad=0.1988 pd=1.505 as=0.147 ps=1.19 w=0.84 l=0.15
X68 cdac_0.single_10b_cdac_0.x10b_cap_array_0.SW[5] cdac_0.single_10b_cdac_0.cdac_sw_10b_0.cdac_sw_6_0.tg_sw_6_6.SWN cdac_0.single_10b_cdac_0.x10b_cap_array_0.SW[5] VSSR sky130_fd_pr__nfet_01v8 ad=0.145 pd=1.58 as=5.8 ps=63.2 w=0.5 l=0.5
X69 VCM cdac_0.single_10b_cdac_1.cdac_sw_10b_0.cdac_sw_7_0.tg_sw_7_7.SWN VCM VSSR sky130_fd_pr__nfet_01v8 ad=0.145 pd=1.58 as=0 ps=0 w=0.5 l=0.5
X70 cdac_0.single_10b_cdac_1.x10b_cap_array_0.SW[3] cdac_0.single_10b_cdac_1.cdac_sw_10b_0.cdac_sw_4_0.nooverlap_clk_0.CLKB0 a_29061_108738# VDDR sky130_fd_pr__pfet_01v8 ad=0.435 pd=3.58 as=0.435 ps=3.58 w=1.5 l=0.5
X71 cdac_0.single_10b_cdac_1.x10b_cap_array_0.SW[1] cdac_0.single_10b_cdac_1.cdac_sw_10b_0.cdac_sw_2_0.tg_sw_2_2.SWN cdac_0.single_10b_cdac_1.x10b_cap_array_0.SW[1] VSSR sky130_fd_pr__nfet_01v8 ad=0.145 pd=1.58 as=10.44 ps=113.76 w=0.5 l=0.5
X72 a_43467_106170# sar10b_0.SWP[0] VDDR VDDR sky130_fd_pr__pfet_01v8 ad=0.435 pd=3.58 as=0.435 ps=3.58 w=1.5 l=0.5
X73 VSSR cdac_0.single_10b_cdac_0.cdac_sw_10b_0.cdac_sw_5_0.nooverlap_clk_0.sky130_fd_sc_hs__inv_8_0.A cdac_0.single_10b_cdac_0.cdac_sw_10b_0.cdac_sw_5_0.nooverlap_clk_0.CLKB0 VSSR sky130_fd_pr__nfet_01v8_lvt ad=0.1036 pd=1.02 as=0.1036 ps=1.02 w=0.74 l=0.15
X74 a_34741_111361# cdac_0.single_10b_cdac_1.cdac_sw_10b_0.cdac_sw_3_0.nooverlap_clk_0.CLK0 cdac_0.single_10b_cdac_1.x10b_cap_array_0.SW[2] VSSR sky130_fd_pr__nfet_01v8 ad=0.145 pd=1.58 as=0.145 ps=1.58 w=0.5 l=0.5
X75 tdc_0.delay_gate_ori_1.sky130_fd_sc_hs__and2_1_0.A a_51345_58977# VSSA VSSA sky130_fd_pr__nfet_01v8 ad=0.29 pd=2.58 as=0.145 ps=1.29 w=1 l=1
X76 th_dif_sw_0.VCP cdac_0.single_10b_cdac_1.x10b_cap_array_0.SW[0] sky130_fd_pr__cap_mim_m3_1 l=4 w=4
X77 cdac_0.single_10b_cdac_1.cdac_sw_10b_0.cdac_sw_3_0.nooverlap_clk_0.sky130_fd_sc_hs__inv_8_0.A cdac_0.single_10b_cdac_1.cdac_sw_10b_0.cdac_sw_3_0.nooverlap_clk_0.x1.A VDDR VDDR sky130_fd_pr__pfet_01v8 ad=0.168 pd=1.42 as=0.3304 ps=2.83 w=1.12 l=0.15
X78 th_dif_sw_0.VCP cdac_0.single_10b_cdac_1.x10b_cap_array_0.SW[0] sky130_fd_pr__cap_mim_m3_1 l=4 w=4
X79 VSSD a_60690_49683# sar10b_0.net3 VSSD sky130_fd_pr__nfet_01v8_lvt ad=0.1554 pd=1.16 as=0.1036 ps=1.02 w=0.74 l=0.15
X80 VCM cdac_0.single_10b_cdac_1.cdac_sw_10b_0.cdac_sw_6_0.tg_sw_6_6.SWP VCM VDDR sky130_fd_pr__pfet_01v8 ad=0.435 pd=3.58 as=0 ps=0 w=1.5 l=0.5
X81 c1_45456_80052# m3_45124_80012# sky130_fd_pr__cap_mim_m3_1 l=4 w=4
X82 a_40248_111636# cdac_0.single_10b_cdac_1.cdac_sw_10b_0.cdac_sw_2_0.nooverlap_clk_0.x3.Y VSSR VSSR sky130_fd_pr__nfet_01v8_lvt ad=0.0888 pd=0.98 as=0.2109 ps=2.05 w=0.74 l=0.15
X83 c1_n1140_47378# m3_n1472_47338# sky130_fd_pr__cap_mim_m3_1 l=4 w=4
X84 a_33863_5788# sar10b_0.SWN[2] VDDR VDDR sky130_fd_pr__pfet_01v8 ad=0.435 pd=3.58 as=0.435 ps=3.58 w=1.5 l=0.5
X85 w_n9655_56533# a_n8277_54249# sky130_fd_pr__cap_mim_m3_1 l=4 w=4
X86 VDDD a_67084_53565# sar10b_0._17_ VDDD sky130_fd_pr__pfet_01v8 ad=0.1988 pd=1.505 as=0.3304 ps=2.83 w=1.12 l=0.15
X87 cdac_0.single_10b_cdac_0.x10b_cap_array_0.SW[3] cdac_0.single_10b_cdac_0.cdac_sw_10b_0.cdac_sw_4_0.tg_sw_4_4.SWN cdac_0.single_10b_cdac_0.x10b_cap_array_0.SW[3] VSSR sky130_fd_pr__nfet_01v8 ad=0.145 pd=1.58 as=8.12 ps=88.48 w=0.5 l=0.5
X88 a_64149_60339# a_64085_60119# a_64071_60339# VSSD sky130_fd_pr__nfet_01v8_lvt ad=0.0504 pd=0.66 as=0.0504 ps=0.66 w=0.42 l=0.15
X89 th_dif_sw_0.VCP cdac_0.single_10b_cdac_1.x10b_cap_array_0.SW[3] sky130_fd_pr__cap_mim_m3_1 l=4 w=4
X90 cdac_0.single_10b_cdac_0.x10b_cap_array_0.SW[1] cdac_0.single_10b_cdac_0.cdac_sw_10b_0.cdac_sw_2_0.tg_sw_2_2.SWP VCM VSSR sky130_fd_pr__nfet_01v8 ad=0.145 pd=1.58 as=0.145 ps=1.58 w=0.5 l=0.5
X91 VDDR cdac_0.single_10b_cdac_0.cdac_sw_10b_0.cdac_sw_9_0.nooverlap_clk_0.CLKB0 cdac_0.single_10b_cdac_0.cdac_sw_10b_0.cdac_sw_9_0.nooverlap_clk_0.CLK0 VDDR sky130_fd_pr__pfet_01v8 ad=0.168 pd=1.42 as=0.168 ps=1.42 w=1.12 l=0.15
X92 VSSR cdac_0.single_10b_cdac_1.cdac_sw_10b_0.cdac_sw_9_0.nooverlap_clk_0.x1.A cdac_0.single_10b_cdac_1.cdac_sw_10b_0.cdac_sw_9_0.nooverlap_clk_0.sky130_fd_sc_hs__inv_8_0.A VSSR sky130_fd_pr__nfet_01v8_lvt ad=0.2109 pd=2.05 as=0.1036 ps=1.02 w=0.74 l=0.15
X93 cdac_0.single_10b_cdac_1.x10b_cap_array_0.SW[3] cdac_0.single_10b_cdac_1.cdac_sw_10b_0.cdac_sw_4_0.tg_sw_4_4.SWP VCM VSSR sky130_fd_pr__nfet_01v8 ad=0.145 pd=1.58 as=0.145 ps=1.58 w=0.5 l=0.5
X94 VSSD sar10b_0.net16 a_64620_65967# VSSD sky130_fd_pr__nfet_01v8_lvt ad=0.1197 pd=1.41 as=0.0504 ps=0.66 w=0.42 l=0.15
X95 a_62899_55988# a_61921_55975# a_62697_56343# VDDD sky130_fd_pr__pfet_01v8 ad=0.0567 pd=0.69 as=0.23015 ps=1.73 w=0.42 l=0.15
X96 VDDR cdac_0.single_10b_cdac_0.cdac_sw_10b_0.cdac_sw_2_0.nooverlap_clk_0.CLKB0 cdac_0.single_10b_cdac_0.cdac_sw_10b_0.cdac_sw_2_0.nooverlap_clk_0.CLK0 VDDR sky130_fd_pr__pfet_01v8 ad=0.196 pd=1.47 as=0.168 ps=1.42 w=1.12 l=0.15
X97 VCM cdac_0.single_10b_cdac_0.cdac_sw_10b_0.cdac_sw_4_0.tg_sw_4_4.SWP VCM VDDR sky130_fd_pr__pfet_01v8 ad=0.435 pd=3.58 as=0 ps=0 w=1.5 l=0.5
X98 VSSR cdac_0.single_10b_cdac_1.cdac_sw_10b_0.cdac_sw_4_0.nooverlap_clk_0.CLKB0 cdac_0.single_10b_cdac_1.cdac_sw_10b_0.cdac_sw_4_0.nooverlap_clk_0.CLK0 VSSR sky130_fd_pr__nfet_01v8_lvt ad=0.1554 pd=1.16 as=0.1036 ps=1.02 w=0.74 l=0.15
X99 th_dif_sw_0.VCP cdac_0.single_10b_cdac_1.x10b_cap_array_0.SW[0] sky130_fd_pr__cap_mim_m3_1 l=4 w=4
X100 th_dif_sw_0.VCN cdac_0.single_10b_cdac_0.x10b_cap_array_0.SW[0] sky130_fd_pr__cap_mim_m3_1 l=4 w=4
X101 th_dif_sw_0.VCN cdac_0.single_10b_cdac_0.x10b_cap_array_0.SW[4] sky130_fd_pr__cap_mim_m3_1 l=4 w=4
X102 th_dif_sw_0.VCN cdac_0.single_10b_cdac_0.x10b_cap_array_0.SW[3] sky130_fd_pr__cap_mim_m3_1 l=4 w=4
X103 VDDR cdac_0.single_10b_cdac_0.cdac_sw_10b_0.cdac_sw_5_0.nooverlap_clk_0.x1.A cdac_0.single_10b_cdac_0.cdac_sw_10b_0.cdac_sw_5_0.nooverlap_clk_0.sky130_fd_sc_hs__inv_8_0.A VDDR sky130_fd_pr__pfet_01v8 ad=0.3304 pd=2.83 as=0.168 ps=1.42 w=1.12 l=0.15
X104 cdac_0.single_10b_cdac_1.cdac_sw_10b_0.cdac_sw_5_0.nooverlap_clk_0.sky130_fd_sc_hs__inv_8_0.A cdac_0.single_10b_cdac_1.cdac_sw_10b_0.cdac_sw_5_0.nooverlap_clk_0.x1.A VSSR VSSR sky130_fd_pr__nfet_01v8_lvt ad=0.1184 pd=1.06 as=0.2331 ps=2.11 w=0.74 l=0.15
X105 cdac_0.single_10b_cdac_0.cdac_sw_10b_0.cdac_sw_9_0.nooverlap_clk_0.CLK0 cdac_0.single_10b_cdac_0.cdac_sw_10b_0.cdac_sw_9_0.nooverlap_clk_0.CLKB0 VDDR VDDR sky130_fd_pr__pfet_01v8 ad=0.168 pd=1.42 as=0.196 ps=1.47 w=1.12 l=0.15
X106 VDDD VSSD VDDD VDDD sky130_fd_pr__pfet_01v8 ad=0.275 pd=2.55 as=207.74103 ps=1.80017k w=1 l=1
X107 a_62185_64695# a_61395_64612# a_61677_64842# VSSD sky130_fd_pr__nfet_01v8_lvt ad=0.1197 pd=1.41 as=0.0735 ps=0.77 w=0.42 l=0.15
X108 VSSD a_62181_51440# a_62139_51318# VSSD sky130_fd_pr__nfet_01v8_lvt ad=0.0756 pd=0.78 as=0.0504 ps=0.66 w=0.42 l=0.15
X109 cdac_0.single_10b_cdac_1.cdac_sw_10b_0.cdac_sw_7_0.tg_sw_7_7.SWN cdac_0.single_10b_cdac_1.cdac_sw_10b_0.cdac_sw_7_0.nooverlap_clk_0.x10.A VSSR VSSR sky130_fd_pr__nfet_01v8_lvt ad=0.1036 pd=1.02 as=0.1554 ps=1.16 w=0.74 l=0.15
X110 VDDR cdac_0.single_10b_cdac_0.cdac_sw_10b_0.cdac_sw_7_0.nooverlap_clk_0.x10.A cdac_0.single_10b_cdac_0.cdac_sw_10b_0.cdac_sw_7_0.tg_sw_7_7.SWN VDDR sky130_fd_pr__pfet_01v8 ad=0.196 pd=1.47 as=0.168 ps=1.42 w=1.12 l=0.15
X111 cdac_0.single_10b_cdac_0.cdac_sw_10b_0.cdac_sw_9_0.tg_sw_9_9.SWP cdac_0.single_10b_cdac_0.cdac_sw_10b_0.cdac_sw_9_0.tg_sw_9_9.SWN VSSR VSSR sky130_fd_pr__nfet_01v8_lvt ad=0.1036 pd=1.02 as=0.1554 ps=1.16 w=0.74 l=0.15
X112 VSSR cdac_0.single_10b_cdac_1.cdac_sw_10b_0.cdac_sw_9_0.nooverlap_clk_0.sky130_fd_sc_hs__inv_8_0.A cdac_0.single_10b_cdac_1.cdac_sw_10b_0.cdac_sw_9_0.nooverlap_clk_0.CLKB0 VSSR sky130_fd_pr__nfet_01v8_lvt ad=0.1554 pd=1.16 as=0.1036 ps=1.02 w=0.74 l=0.15
X113 cdac_0.single_10b_cdac_0.cdac_sw_10b_0.cdac_sw_1_0.nooverlap_clk_0.CLKB0 cdac_0.single_10b_cdac_0.cdac_sw_10b_0.cdac_sw_1_0.nooverlap_clk_0.sky130_fd_sc_hs__inv_8_0.A VSSR VSSR sky130_fd_pr__nfet_01v8_lvt ad=0.1036 pd=1.02 as=0.2146 ps=2.06 w=0.74 l=0.15
X114 th_dif_sw_0.VCN cdac_0.single_10b_cdac_0.x10b_cap_array_0.SW[1] sky130_fd_pr__cap_mim_m3_1 l=4 w=4
X115 c1_45456_95732# m3_45124_95692# sky130_fd_pr__cap_mim_m3_1 l=4 w=4
X116 th_dif_sw_0.VCN cdac_0.single_10b_cdac_0.x10b_cap_array_0.SW[0] sky130_fd_pr__cap_mim_m3_1 l=4 w=4
X117 th_dif_sw_0.VCN cdac_0.single_10b_cdac_0.x10b_cap_array_0.SW[0] sky130_fd_pr__cap_mim_m3_1 l=4 w=4
X118 a_62131_67714# a_61153_67587# a_61929_67295# VDDD sky130_fd_pr__pfet_01v8 ad=0.0567 pd=0.69 as=0.23015 ps=1.73 w=0.42 l=0.15
X119 VCM cdac_0.single_10b_cdac_0.cdac_sw_10b_0.cdac_sw_2_0.tg_sw_2_2.SWN VCM VSSR sky130_fd_pr__nfet_01v8 ad=0.145 pd=1.58 as=0 ps=0 w=0.5 l=0.5
X120 VDDD a_68169_64335# a_68421_64288# VDDD sky130_fd_pr__pfet_01v8 ad=0.1428 pd=1.225 as=0.063 ps=0.72 w=0.42 l=0.15
X121 cdac_0.single_10b_cdac_1.x10b_cap_array_0.SW[2] cdac_0.single_10b_cdac_1.cdac_sw_10b_0.cdac_sw_3_0.nooverlap_clk_0.CLKB0 a_33863_107882# VDDR sky130_fd_pr__pfet_01v8 ad=0.435 pd=3.58 as=0.435 ps=3.58 w=1.5 l=0.5
X122 cdac_0.single_10b_cdac_1.x10b_cap_array_0.SW[0] cdac_0.single_10b_cdac_1.cdac_sw_10b_0.cdac_sw_1_0.tg_sw_1_2.SWP cdac_0.single_10b_cdac_1.x10b_cap_array_0.SW[0] VDDR sky130_fd_pr__pfet_01v8 ad=0.435 pd=3.58 as=0 ps=0 w=1.5 l=0.5
X123 th_dif_sw_0.VCP cdac_0.single_10b_cdac_1.x10b_cap_array_0.SW[2] sky130_fd_pr__cap_mim_m3_1 l=4 w=4
X124 cdac_0.single_10b_cdac_0.x10b_cap_array_0.SW[0] cdac_0.single_10b_cdac_0.cdac_sw_10b_0.cdac_sw_1_0.tg_sw_1_2.SWP VCM VSSR sky130_fd_pr__nfet_01v8 ad=0.145 pd=1.58 as=0.145 ps=1.58 w=0.5 l=0.5
X125 VDDD VSSD VDDD VDDD sky130_fd_pr__pfet_01v8 ad=0.275 pd=2.55 as=0 ps=0 w=1 l=1
X126 VDDR cdac_0.single_10b_cdac_0.cdac_sw_10b_0.cdac_sw_5_0.nooverlap_clk_0.x6.A cdac_0.single_10b_cdac_0.cdac_sw_10b_0.cdac_sw_5_0.nooverlap_clk_0.x8.A VDDR sky130_fd_pr__pfet_01v8 ad=0.3864 pd=2.93 as=0.3304 ps=2.83 w=1.12 l=0.15
X127 cdac_0.single_10b_cdac_0.cdac_sw_10b_0.cdac_sw_5_0.nooverlap_clk_0.sky130_fd_sc_hs__inv_8_0.A cdac_0.single_10b_cdac_0.cdac_sw_10b_0.cdac_sw_5_0.nooverlap_clk_0.x1.A VDDR VDDR sky130_fd_pr__pfet_01v8 ad=0.168 pd=1.42 as=0.168 ps=1.42 w=1.12 l=0.15
X128 sar10b_0.clknet_1_1__leaf_CLK a_65355_53949# VDDD VDDD sky130_fd_pr__pfet_01v8 ad=0.168 pd=1.42 as=0.168 ps=1.42 w=1.12 l=0.15
X129 cdac_0.single_10b_cdac_0.x10b_cap_array_0.SW[0] cdac_0.single_10b_cdac_0.cdac_sw_10b_0.cdac_sw_1_0.tg_sw_1_2.SWN cdac_0.single_10b_cdac_0.x10b_cap_array_0.SW[0] VSSR sky130_fd_pr__nfet_01v8 ad=0.145 pd=1.58 as=11.6 ps=126.4 w=0.5 l=0.5
X130 VDDD a_64831_56974# sar10b_0.net31 VDDD sky130_fd_pr__pfet_01v8 ad=0.336 pd=2.84 as=0.3808 ps=2.92 w=1.12 l=0.15
X131 th_dif_sw_0.VCN cdac_0.single_10b_cdac_0.x10b_cap_array_0.SW[0] sky130_fd_pr__cap_mim_m3_1 l=4 w=4
X132 th_dif_sw_0.VCN cdac_0.single_10b_cdac_0.x10b_cap_array_0.SW[1] sky130_fd_pr__cap_mim_m3_1 l=4 w=4
X133 VSSR sar10b_0.SWN[4] a_25137_5779# VSSR sky130_fd_pr__nfet_01v8 ad=0.145 pd=1.58 as=0.145 ps=1.58 w=0.5 l=0.5
X134 VSSR cdac_0.single_10b_cdac_0.cdac_sw_10b_0.cdac_sw_8_0.nooverlap_clk_0.sky130_fd_sc_hs__nand2_1_0.Y cdac_0.single_10b_cdac_0.cdac_sw_10b_0.cdac_sw_8_0.nooverlap_clk_0.sky130_fd_sc_hs__inv_1_1.A VSSR sky130_fd_pr__nfet_01v8_lvt ad=0.2627 pd=2.19 as=0.2109 ps=2.05 w=0.74 l=0.15
X135 VSSD a_65733_59432# a_65691_59310# VSSD sky130_fd_pr__nfet_01v8_lvt ad=0.0756 pd=0.78 as=0.0504 ps=0.66 w=0.42 l=0.15
X136 th_dif_sw_0.VCN cdac_0.single_10b_cdac_0.x10b_cap_array_0.SW[0] sky130_fd_pr__cap_mim_m3_1 l=4 w=4
X137 cdac_0.single_10b_cdac_1.x10b_cap_array_0.SW[2] cdac_0.single_10b_cdac_1.cdac_sw_10b_0.cdac_sw_3_0.tg_sw_3_3.SWN VCM VDDR sky130_fd_pr__pfet_01v8 ad=0.435 pd=3.58 as=0.435 ps=3.58 w=1.5 l=0.5
X138 cdac_0.single_10b_cdac_1.x10b_cap_array_0.SW[2] cdac_0.single_10b_cdac_1.cdac_sw_10b_0.cdac_sw_3_0.nooverlap_clk_0.CLKB0 a_33863_107882# VDDR sky130_fd_pr__pfet_01v8 ad=0.435 pd=3.58 as=0.435 ps=3.58 w=1.5 l=0.5
X139 a_62949_56296# sar10b_0.net16 VDDD VDDD sky130_fd_pr__pfet_01v8 ad=0.063 pd=0.72 as=0.08925 ps=0.845 w=0.42 l=0.15
X140 cdac_0.single_10b_cdac_0.cdac_sw_10b_0.cdac_sw_5_0.tg_sw_5_5.SWP cdac_0.single_10b_cdac_0.cdac_sw_10b_0.cdac_sw_5_0.tg_sw_5_5.SWN VSSR VSSR sky130_fd_pr__nfet_01v8_lvt ad=0.1036 pd=1.02 as=0.1036 ps=1.02 w=0.74 l=0.15
X141 VDDD sar10b_0.net16 a_64725_68631# VDDD sky130_fd_pr__pfet_01v8 ad=0.1176 pd=1.4 as=0.063 ps=0.72 w=0.42 l=0.15
X142 th_dif_sw_0.VCN cdac_0.single_10b_cdac_0.x10b_cap_array_0.SW[0] sky130_fd_pr__cap_mim_m3_1 l=4 w=4
X143 a_61589_50795# a_61454_50696# VSSD VSSD sky130_fd_pr__nfet_01v8_lvt ad=0.24605 pd=1.405 as=0.21123 ps=1.45 w=0.74 l=0.15
X144 VCM cdac_0.single_10b_cdac_1.cdac_sw_10b_0.cdac_sw_9_0.tg_sw_9_9.SWP VCM VDDR sky130_fd_pr__pfet_01v8 ad=0.435 pd=3.58 as=0 ps=0 w=1.5 l=0.5
X145 a_60747_61567# sar10b_0.net9 VDDD VDDD sky130_fd_pr__pfet_01v8 ad=0.3304 pd=2.83 as=0.224 ps=1.52 w=1.12 l=0.15
X146 cdac_0.single_10b_cdac_1.cdac_sw_10b_0.cdac_sw_4_0.nooverlap_clk_0.x1.A cdac_0.single_10b_cdac_1.cdac_sw_10b_0.cdac_sw_4_0.nooverlap_clk_0.sky130_fd_sc_hs__inv_1_1.A VDDR VDDR sky130_fd_pr__pfet_01v8 ad=0.3304 pd=2.83 as=0.3864 ps=2.93 w=1.12 l=0.15
X147 cdac_0.single_10b_cdac_1.cdac_sw_10b_0.cdac_sw_9_0.nooverlap_clk_0.x3.Y sar10b_0.CF[8] VSSR VSSR sky130_fd_pr__nfet_01v8_lvt ad=0.2109 pd=2.05 as=0.2627 ps=2.19 w=0.74 l=0.15
X148 cdac_0.single_10b_cdac_1.x10b_cap_array_0.SW[7] cdac_0.single_10b_cdac_1.cdac_sw_10b_0.cdac_sw_8_0.tg_sw_8_8.SWN VCM VDDR sky130_fd_pr__pfet_01v8 ad=0.435 pd=3.58 as=0.435 ps=3.58 w=1.5 l=0.5
X149 cdac_0.single_10b_cdac_0.x10b_cap_array_0.SW[6] cdac_0.single_10b_cdac_0.cdac_sw_10b_0.cdac_sw_7_0.tg_sw_7_7.SWN cdac_0.single_10b_cdac_0.x10b_cap_array_0.SW[6] VSSR sky130_fd_pr__nfet_01v8 ad=0.145 pd=1.58 as=4.64 ps=50.56 w=0.5 l=0.5
X150 th_dif_sw_0.VCN cdac_0.single_10b_cdac_0.x10b_cap_array_0.SW[1] sky130_fd_pr__cap_mim_m3_1 l=4 w=4
X151 VDDD a_65068_49569# sar10b_0._10_ VDDD sky130_fd_pr__pfet_01v8 ad=0.1988 pd=1.505 as=0.3304 ps=2.83 w=1.12 l=0.15
X152 cdac_0.single_10b_cdac_1.cdac_sw_10b_0.cdac_sw_4_0.nooverlap_clk_0.sky130_fd_sc_hs__inv_1_1.A cdac_0.single_10b_cdac_1.cdac_sw_10b_0.cdac_sw_4_0.nooverlap_clk_0.sky130_fd_sc_hs__nand2_1_0.Y VSSR VSSR sky130_fd_pr__nfet_01v8_lvt ad=0.2109 pd=2.05 as=0.2627 ps=2.19 w=0.74 l=0.15
X153 th_dif_sw_0.VCN cdac_0.single_10b_cdac_0.x10b_cap_array_0.SW[1] sky130_fd_pr__cap_mim_m3_1 l=4 w=4
X154 th_dif_sw_0.VCN cdac_0.single_10b_cdac_0.x10b_cap_array_0.SW[0] sky130_fd_pr__cap_mim_m3_1 l=4 w=4
X155 VCM cdac_0.single_10b_cdac_0.cdac_sw_10b_0.cdac_sw_1_0.tg_sw_1_2.SWP VCM VDDR sky130_fd_pr__pfet_01v8 ad=0.435 pd=3.58 as=0 ps=0 w=1.5 l=0.5
X156 cdac_0.single_10b_cdac_0.x10b_cap_array_0.SW[4] cdac_0.single_10b_cdac_0.cdac_sw_10b_0.cdac_sw_5_0.tg_sw_5_5.SWN VCM VDDR sky130_fd_pr__pfet_01v8 ad=0.435 pd=3.58 as=0.435 ps=3.58 w=1.5 l=0.5
X157 th_dif_sw_0.VCP cdac_0.single_10b_cdac_1.x10b_cap_array_0.SW[0] sky130_fd_pr__cap_mim_m3_1 l=4 w=4
X158 cdac_0.single_10b_cdac_0.x10b_cap_array_0.SW[3] cdac_0.single_10b_cdac_0.cdac_sw_10b_0.cdac_sw_4_0.tg_sw_4_4.SWP VCM VSSR sky130_fd_pr__nfet_01v8 ad=0.145 pd=1.58 as=0.145 ps=1.58 w=0.5 l=0.5
X159 th_dif_sw_0.VCP cdac_0.single_10b_cdac_1.x10b_cap_array_0.SW[0] sky130_fd_pr__cap_mim_m3_1 l=4 w=4
X160 VDDR cdac_0.single_10b_cdac_0.cdac_sw_10b_0.cdac_sw_4_0.nooverlap_clk_0.sky130_fd_sc_hs__inv_8_0.A cdac_0.single_10b_cdac_0.cdac_sw_10b_0.cdac_sw_4_0.nooverlap_clk_0.CLKB0 VDDR sky130_fd_pr__pfet_01v8 ad=0.196 pd=1.47 as=0.168 ps=1.42 w=1.12 l=0.15
X161 VSSR cdac_0.single_10b_cdac_1.cdac_sw_10b_0.cdac_sw_8_0.nooverlap_clk_0.x10.A cdac_0.single_10b_cdac_1.cdac_sw_10b_0.cdac_sw_8_0.tg_sw_8_8.SWN VSSR sky130_fd_pr__nfet_01v8_lvt ad=0.2146 pd=2.06 as=0.1036 ps=1.02 w=0.74 l=0.15
X162 a_44345_5779# cdac_0.single_10b_cdac_0.cdac_sw_10b_0.cdac_sw_1_0.nooverlap_clk_0.CLK0 cdac_0.single_10b_cdac_0.x10b_cap_array_0.SW[0] VSSR sky130_fd_pr__nfet_01v8 ad=0.145 pd=1.58 as=0.145 ps=1.58 w=0.5 l=0.5
X163 VDDD sar10b_0.net22 a_68946_56639# VDDD sky130_fd_pr__pfet_01v8 ad=0.224 pd=1.52 as=0.3304 ps=2.83 w=1.12 l=0.15
X164 VDDD a_64491_48621# sar10b_0.SWN[4] VDDD sky130_fd_pr__pfet_01v8 ad=0.224 pd=1.52 as=0.3304 ps=2.83 w=1.12 l=0.15
X165 cdac_0.single_10b_cdac_0.x10b_cap_array_0.SW[1] cdac_0.single_10b_cdac_0.cdac_sw_10b_0.cdac_sw_2_0.tg_sw_2_2.SWP cdac_0.single_10b_cdac_0.x10b_cap_array_0.SW[1] VDDR sky130_fd_pr__pfet_01v8 ad=0.435 pd=3.58 as=31.32 ps=257.76001 w=1.5 l=0.5
X166 a_60747_57571# sar10b_0.net6 VSSD VSSD sky130_fd_pr__nfet_01v8_lvt ad=0.1197 pd=1.41 as=0.1638 ps=1.2 w=0.42 l=0.15
X167 VDDR cdac_0.single_10b_cdac_1.cdac_sw_10b_0.cdac_sw_8_0.nooverlap_clk_0.x1.A cdac_0.single_10b_cdac_1.cdac_sw_10b_0.cdac_sw_8_0.nooverlap_clk_0.sky130_fd_sc_hs__inv_8_0.A VDDR sky130_fd_pr__pfet_01v8 ad=0.3304 pd=2.83 as=0.168 ps=1.42 w=1.12 l=0.15
X168 VSSD sar10b_0.clk_div_0.COUNT\[2\] sar10b_0._15_ VSSD sky130_fd_pr__nfet_01v8_lvt ad=0.2109 pd=2.05 as=0.1443 ps=1.13 w=0.74 l=0.15
X169 VDDD a_66633_56639# a_66885_56768# VDDD sky130_fd_pr__pfet_01v8 ad=0.1428 pd=1.225 as=0.063 ps=0.72 w=0.42 l=0.15
X170 VSSD VDDD VSSD VSSD sky130_fd_pr__nfet_01v8_lvt ad=0.1113 pd=1.37 as=0 ps=0 w=0.42 l=1
X171 VDDD sar10b_0.cyclic_flag_0.FINAL a_67209_68331# VDDD sky130_fd_pr__pfet_01v8 ad=0.168 pd=1.42 as=0.3136 ps=2.8 w=1.12 l=0.15
X172 th_dif_sw_0.VCP cdac_0.single_10b_cdac_1.x10b_cap_array_0.SW[1] sky130_fd_pr__cap_mim_m3_1 l=4 w=4
X173 cdac_0.single_10b_cdac_1.x10b_cap_array_0.SW[3] cdac_0.single_10b_cdac_1.cdac_sw_10b_0.cdac_sw_4_0.tg_sw_4_4.SWN VCM VDDR sky130_fd_pr__pfet_01v8 ad=0.435 pd=3.58 as=0.435 ps=3.58 w=1.5 l=0.5
X174 cdac_0.single_10b_cdac_1.x10b_cap_array_0.SW[0] cdac_0.single_10b_cdac_1.cdac_sw_10b_0.cdac_sw_1_0.tg_sw_1_2.SWN cdac_0.single_10b_cdac_1.x10b_cap_array_0.SW[0] VSSR sky130_fd_pr__nfet_01v8 ad=0.145 pd=1.58 as=11.6 ps=126.4 w=0.5 l=0.5
X175 VSSR cdac_0.single_10b_cdac_0.cdac_sw_10b_0.cdac_sw_1_0.tg_sw_1_2.SWN cdac_0.single_10b_cdac_0.cdac_sw_10b_0.cdac_sw_1_0.tg_sw_1_2.SWP VSSR sky130_fd_pr__nfet_01v8_lvt ad=0.1554 pd=1.16 as=0.1036 ps=1.02 w=0.74 l=0.15
X176 VSSR cdac_0.single_10b_cdac_1.cdac_sw_10b_0.cdac_sw_6_0.nooverlap_clk_0.CLKB0 cdac_0.single_10b_cdac_1.cdac_sw_10b_0.cdac_sw_6_0.nooverlap_clk_0.CLK0 VSSR sky130_fd_pr__nfet_01v8_lvt ad=0.1295 pd=1.09 as=0.1036 ps=1.02 w=0.74 l=0.15
X177 a_24259_5788# sar10b_0.SWN[4] VDDR VDDR sky130_fd_pr__pfet_01v8 ad=0.435 pd=3.58 as=0.435 ps=3.58 w=1.5 l=0.5
X178 a_67372_52833# sar10b_0._14_ VSSD VSSD sky130_fd_pr__nfet_01v8_lvt ad=0.17738 pd=1.195 as=0.12607 ps=1.1 w=0.55 l=0.15
X179 cdac_0.single_10b_cdac_1.cdac_sw_10b_0.cdac_sw_2_0.nooverlap_clk_0.CLKB0 cdac_0.single_10b_cdac_1.cdac_sw_10b_0.cdac_sw_2_0.nooverlap_clk_0.sky130_fd_sc_hs__inv_8_0.A VSSR VSSR sky130_fd_pr__nfet_01v8_lvt ad=0.1036 pd=1.02 as=0.1295 ps=1.09 w=0.74 l=0.15
X180 th_dif_sw_0.VCP cdac_0.single_10b_cdac_1.x10b_cap_array_0.SW[0] sky130_fd_pr__cap_mim_m3_1 l=4 w=4